104

C          1.69534        1.88712        0.96136
C         10.03894        4.14934        3.90460
C          1.91830        1.30888        2.37231
C          9.81597        4.72757        5.31556
C          1.03402        0.09091        2.62534
C         10.70025        5.94555        5.56859
N          1.66454        2.34903        3.40860
N         10.06974        3.68743        0.46535
O          1.04607        2.95605        0.83559
O         10.68820        3.08040        3.77884
O          2.19678        1.20265        0.00382
O          9.53750        4.83380        2.94707
H          0.68409        2.69849        3.36999
H         11.05018        3.33797        0.42674
H          2.34038        3.14248        3.26517
H          9.39390        2.89398        0.32193
H          1.82824        1.94182        4.37208
H          9.90604        4.09463        1.42883
H          2.97474        1.02644        2.47681
H          8.75954        5.01002        5.42005
H          1.25023        5.70724        3.61339
H         10.48405        0.32922        0.67014
H          1.21917        5.34953        1.87884
H         10.51511        0.68693        4.82209
H         11.70745        0.36376        2.59420
H          0.02683        5.67270        5.53745
C         -1.69534        4.14934        3.90460
C         -1.91830        4.72757        5.31556
C         -1.03402        5.94555        5.56859
O         -1.04607        3.08040        3.77884
O         -2.19678        4.83380        2.94707
H         -2.97474        5.01002        5.42005
H         -0.02683        0.36376        2.59420
N         -1.66454        3.68743        6.35185
H         -0.68409        3.33797        6.31324
H         -2.34038        2.89398        6.20842
H         -1.82824        4.09463        7.31532
H         -1.21917        6.72338        4.82209
H         -0.02683        6.40022        2.59420
H         -1.25023        6.36568        6.55664
C         10.03894       -1.88712       -1.98189
C          9.81597       -1.30888       -0.57094
C         10.70025       -0.09091       -0.31791
O         10.68820       -2.95605       -2.10765
O          9.53750       -1.20265       -2.93943
H          8.75954       -1.02644       -0.46644
C         10.03894       -1.88712        3.90460
C          9.81597       -1.30888        5.31556
C         10.70025       -0.09091        5.56859
N         10.06974       -2.34903        0.46535
O         10.68820       -2.95605        3.77884
O          9.53750       -1.20265        2.94707
H         11.05018       -2.69849        0.42674
H          9.39390       -3.14248        0.32193
H          9.90604       -1.94182        1.42883
H          8.75954       -1.02644        5.42005
H          1.25023       -0.32922        3.61339
H          1.21917       -0.68693        1.87884
N         10.06974       -2.34903        6.35185
H         11.05018       -2.69849        6.31324
H          9.39390       -3.14248        6.20842
H          9.90604       -1.94182        7.31532
C         10.03894        4.14934       -1.98189
C          9.81597        4.72757       -0.57094
C         10.70025        5.94555       -0.31791
O         10.68820        3.08040       -2.10765
O          9.53750        4.83380       -2.93943
H          8.75954        5.01002       -0.46644
H         10.51511        0.68693       -1.06441
N         10.06974        3.68743        6.35185
H         11.05018        3.33797        6.31324
H          9.39390        2.89398        6.20842
H          9.90604        4.09463        7.31532
H         10.48405        0.32922        6.55664
H         10.51511        6.72338       -1.06441
C          1.69534        7.92357        0.96136
C          1.91830        7.34534        2.37231
C          1.03402        6.12736        2.62534
N          1.66454        8.38548        3.40860
O          1.04607        8.99251        0.83559
O          2.19678        7.23911        0.00382
H          0.68409        8.73494        3.36999
H          2.34038        9.17893        3.26517
H          1.82824        7.97828        4.37208
H          2.97474        7.06289        2.47681
H         10.48405        6.36568        0.67014
H         10.51511        6.72338        4.82209
H         10.48405        6.36568        6.55664
H         11.76110       -0.36376       -0.34905
H         12.98451       -0.32922        3.61339
H         12.95345       -0.68693        1.87884
H         11.76110       -0.36376        5.53745
H         11.76110        5.67270       -0.34905
C         13.42961        1.88712        0.96136
C         13.65258        1.30888        2.37231
C         12.76830        0.09091        2.62534
N         13.39882        2.34903        3.40860
O         12.78035        2.95605        0.83559
O         13.93106        1.20265        0.00382
H         12.41837        2.69849        3.36999
H         14.07465        3.14248        3.26517
H         13.56252        1.94182        4.37208
H         14.70902        1.02644        2.47681
H         11.76110        5.67270        5.53745
