         117

 C    3.3671227747079335        1.6916441723322724        3.5272878349951724     
 C   0.35009993696268299        4.3427468442045525        2.3150141832032003     
 C    5.6839457385278163        10.377137860741376       0.60613682589598650     
 C    2.6669229007825668        7.7260351888690977        5.2361651923023871     
 C    2.8209528392665755        1.9458331744531783        2.1107171724980187     
 C    5.8379757828472663        4.0885578420836479        3.7315848457003540     
 C   0.19606989264323366        10.122948858620472        5.0318682874326468     
 C    3.2130928362239248        7.9802241909900031       0.81043373076572611     
 C    1.6035196567731296        1.0718053080565446        1.8170577949073601     
 C    4.6205426003538204        4.9625857084802805        4.0252442232910113     
 C    1.4135030751366795        10.996976725017104        4.7382089098419886     
 C    4.4305260187173703        7.1061963245933706        1.1040931083563845     
 N    3.8849884500402765        1.7032263797321239        1.0935807914368607     
 N   0.86796561229502567        4.3311646368047025        4.7487212267615106     
 N    5.1660800631954737        10.365555653341527        4.0147319063714892     
 N    2.1490572254502243        7.7376173962689485        1.8275701118268837     
 O    4.4070684926618302       0.99567612854399901        3.6550671971989823     
 O    1.3900456549165803        5.0387148879928265        2.1872348209993895     
 O    4.6440000205739196        11.073105904529651       0.73391618809979631     
 O    1.6269771828286701        7.0300671450808245        5.1083858300985767     
 O    2.7023612634291880        2.2182204220243316        4.4839229095387481     
 O    5.7193842070098793        3.8161705945124940        1.3583791086596246     
 O   0.31466146848062065        9.8505616110493186        1.5627719004395615     
 O    3.3316844120613118        8.2526114385611571        4.2795301177588119     
 H    4.2479027835330134       0.72808888867880295        1.1433282645569189     
 H    1.2308799457877631        5.3063021278580225        4.6989737536414520     
 H    4.8031657297027373        11.340693144394848        4.0644793794915479     
 H    1.7861428919574869        6.7624799052156277        1.7778226387068257     
 H    4.6625432895641685        2.3873563060224718        1.2426920277670257     
 H    1.6455204518189173        3.6470347105143537        4.5996099904313459     
 H    4.3885252236715830        9.6814257270511774        4.1638431427016540     
 H    1.3715023859263322        8.4217473225592965        1.6784588754967189     
 H    3.4875054566432362        1.8556911707862860       0.12274805113997811     
 H   0.47048261889798509        4.1786998457505398        5.7195539670583937     
 H    5.5635630565925149        10.213090862287364        3.0438991660746071     
 H    2.5465402188472646        7.8900821873231104        2.7984028521237660     
 H    2.5515462352405258        3.0061595705009889        2.0329688165626290     
 H    5.5685691788212157        3.0282314460358366        3.8093332016357428     
 H   0.46547649666928326        9.0626224625726604        4.9541199314972575     
 H    3.4824994402499745        9.0405505870378136       0.88818208670111554     
 H    1.1918075644965913        1.3149818149603676       0.83163013552668197     
 H    4.2088305080772814        4.7194092015764575        5.0106718826716898     
 H    1.8252151674132184        10.753800218113282        3.7527812504613101     
 H    4.8422381109939092        7.3493728314971918        2.0895207677370626     
 H   0.82242282252126198        1.2357501753093003        2.5656896074122311     
 H    3.8394457661019530        4.7986408412275248        3.2766124107861407     
 H    2.1945999093885469        10.833031857764350        5.4868407223468596     
 H    5.2116228529692386        7.2701411918461254       0.35546129585151359     
 H    1.8730683977974063       9.65764280993007714E-003   1.8277655898877374     
 H    4.8900913413780973        6.0247333737268960        4.0145364283106346     
 H    1.1439543341124028        12.059124390263719        4.7489167048223662     
 H    4.1609772776930942        6.0440486593467551        1.0933853133760074     
 N  -0.86796571813046697        10.365555653341527       -1.8275702176623250     
 H   -1.2308800516232039        11.340693144394848       -1.7778227445422665     
 H   -1.6455205576543586        9.6814257270511774       -1.6784589813321600     
 H  -0.47048272473342645        10.213090862287364       -2.7984029579592073     
 C  -0.35010004279812507        10.377137860741376       0.60613682589598650     
 C  -0.19606999847867471        4.0885578420836479        3.7315848457003540     
 C   -1.4135031809721208        4.9625857084802805        4.0252442232910113     
 N  -0.86796571813046697        10.365555653341527        4.0147319063714892     
 O   -1.3900457607520216        11.073105904529651       0.73391618809979631     
 O  -0.31466157431606173        3.8161705945124940        1.3583791086596246     
 H   -1.2308800516232039        11.340693144394848        4.0644793794915479     
 H   -1.6455205576543586        9.6814257270511774        4.1638431427016540     
 H  -0.47048272473342645        10.213090862287364        3.0438991660746071     
 H  -0.46547660250472500        3.0282314460358366        3.8093332016357428     
 H   -1.8252152732486597        4.7194092015764575        5.0106718826716898     
 H   -2.1946000152239882        4.7986408412275248        3.2766124107861407     
 H   -1.1439544399478436        6.0247333737268960        4.0145364283106346     
 C  -0.35010004279812507        10.377137860741376        6.4484389499298009     
 O   -1.3900457607520216        11.073105904529651        6.5762183121336104     
 C    2.6669229007825668        7.7260351888690977      -0.60613693173142702     
 C   0.19606989264323366        10.122948858620472      -0.81043383660116763     
 C    1.4135030751366795        10.996976725017104       -1.1040932141918254     
 N    5.1660800631954737        10.365555653341527       -1.8275702176623250     
 O    1.6269771828286701        7.0300671450808245      -0.73391629393523750     
 O    3.3316844120613118        8.2526114385611571       -1.5627720062750026     
 H    4.8031657297027373        11.340693144394848       -1.7778227445422665     
 H    4.3885252236715830        9.6814257270511774       -1.6784589813321600     
 H    5.5635630565925149        10.213090862287364       -2.7984029579592073     
 H   0.46547649666928326        9.0626224625726604      -0.88818219253655672     
 H    1.8252151674132184        10.753800218113282       -2.0895208735725039     
 H    2.1945999093885469        10.833031857764350      -0.35546140168695478     
 H    1.1439543341124028        12.059124390263719       -1.0933854192114483     
 C    5.6839457385278163        10.377137860741376        6.4484389499298009     
 C    3.2130928362239248        7.9802241909900031        6.6527358547995403     
 C    4.4305260187173703        7.1061963245933706        6.9463952323901994     
 N    2.1490572254502243        7.7376173962689485        7.6698722358606970     
 O    4.6440000205739196        11.073105904529651        6.5762183121336104     
 O   0.31466146848062065        9.8505616110493186        7.4050740244733761     
 H    1.7861428919574869        6.7624799052156277        7.6201247627406401     
 H    1.3715023859263322        8.4217473225592965        7.5207609995305331     
 H    2.5465402188472646        7.8900821873231104        8.6407049761575809     
 H    3.4824994402499745        9.0405505870378136        6.7304842107349296     
 H    4.8422381109939092        7.3493728314971918        7.9318228917708762     
 H    5.2116228529692386        7.2701411918461254        6.1977634198853275     
 H    4.1609772776930942        6.0440486593467551        6.9356874374098219     
 C    6.2301156739691752        10.122948858620472      -0.81043383660116763     
 C    7.4475488564626202        10.996976725017104       -1.1040932141918254     
 H    6.4995222779952240        9.0626224625726604      -0.88818219253655672     
 H    7.8592609487391591        10.753800218113282       -2.0895208735725039     
 H    8.2286456907144885        10.833031857764350      -0.35546140168695478     
 H    7.1780001154383442        12.059124390263719       -1.0933854192114483     
 C    6.3841457182886234        4.3427468442045525        2.3150141832032003     
 C    6.2301156739691752        10.122948858620472        5.0318682874326468     
 C    7.4475488564626202        10.996976725017104        4.7382089098419886     
 N    6.9020113936209668        4.3311646368047025        4.7487212267615106     
 O    7.4240914362425219        5.0387148879928265        2.1872348209993895     
 O    6.3487072498065622        9.8505616110493186        1.5627719004395615     
 H    7.2649257271137042        5.3063021278580225        4.6989737536414520     
 H    7.6795662331448584        3.6470347105143537        4.5996099904313459     
 H    6.5045284002239265        4.1786998457505398        5.7195539670583937     
 H    6.4995222779952240        9.0626224625726604        4.9541199314972575     
 H    7.8592609487391591        10.753800218113282        3.7527812504613101     
 H    8.2286456907144885        10.833031857764350        5.4868407223468596     
 H    7.1780001154383442        12.059124390263719        4.7489167048223662     
 O    6.3487072498065622        9.8505616110493186        7.4050740244733761     
