65

C          7.56248        1.13111        0.96136
C          4.17180        4.90535        3.90460
C          7.78544        1.70934        2.37231
C          3.94883        4.32711        5.31556
C          6.90116        2.92732        2.62534
C          4.83312        3.10914        5.56859
N          7.53168        0.66920        3.40860
N          4.20260        5.36726        0.46535
O          6.91321        0.06217        0.83559
O          4.82106        5.97428        3.77884
O          8.06392        1.81557        0.00382
O          3.67036        4.22088        2.94707
H          6.55123        0.31974        3.36999
H          5.18305        5.71671        0.42674
H          8.20751        5.91221        3.26517
H          3.52676        0.12425        0.32193
H          7.69538        1.07641        4.37208
H          4.03890        4.96005        1.42883
H          8.84188        1.99179        2.47681
H          2.89240        4.04466        5.42005
H          7.11737        3.34745        3.61339
H          4.61691        2.68901        0.67014
H          7.08631        3.70515        1.87884
H          4.64797        2.33130        4.82209
H          5.84031        2.65447        2.59420
H          5.89396        3.38199        5.53745
C          4.17180       -1.13111       -1.98189
C          3.94883       -1.70934       -0.57094
C          4.83312       -2.92732       -0.31791
O          4.82106       -0.06217       -2.10765
O          3.67036       -1.81557       -2.93943
H          2.89240       -1.99179       -0.46644
H          4.64797       -3.70515       -1.06441
H          5.89396       -2.65447       -0.34905
N          4.20260       -0.66920        0.46535
H          5.18305       -0.31974        0.42674
H          8.20751       -0.12425        3.26517
H          4.03890       -1.07641        1.42883
H          4.61691       -3.34745        0.67014
C          4.17180        4.90535       -1.98189
C          3.94883        4.32711       -0.57094
C          4.83312        3.10914       -0.31791
O          4.82106        5.97428       -2.10765
O          3.67036        4.22088       -2.93943
H          2.89240        4.04466       -0.46644
H          4.64797        2.33130       -1.06441
H          5.89396        3.38199       -0.34905
N          4.20260        5.36726        6.35185
H          5.18305        5.71671        6.31324
H          4.03890        4.96005        7.31532
H          4.61691        2.68901        6.55664
C          7.56248        7.16757        0.96136
C          7.78544        7.74580        2.37231
C          6.90116        8.96378        2.62534
N          7.53168        6.70566        3.40860
O          6.91321        6.09863        0.83559
O          8.06392        7.85203        0.00382
H          6.55123        6.35620        3.36999
H          3.52676        6.16071        0.32193
H          7.69538        7.11286        4.37208
H          8.84188        8.02825        2.47681
H          7.11737        9.38391        3.61339
H          7.08631        9.74161        1.87884
H          5.84031        8.69092        2.59420
H          3.52676        6.16071        6.20842
