38

C         22.78047        0.71931       23.19463
H         21.99549        1.27224       22.66602
H         16.76241        3.03236       23.26712
H         16.34017        0.54664       22.90459
S         17.89986       -1.80656       23.52392
C         18.69610       -0.38549       23.77119
O         20.94924       -2.32748       23.99924
N         20.07300       -0.17660       23.83279
C         21.11671       -1.11741       23.89597
C         22.49088       -0.49892       23.84599
C         23.53810       -1.21479       24.45797
H         23.30446       -2.16026       24.95692
O         18.12704        0.84226       23.93506
H         20.33350        0.80638       23.94558
C         16.32419        2.40885       24.06455
H         15.22731        2.52458       24.02703
H         16.67592        2.78566       25.03966
C         16.67752        0.94395       23.87763
H         16.25382        0.30179       24.66899
O         29.49891       -0.84225       23.69089
H         27.29245       -0.80637       23.68037
C         31.30176       -2.40884       23.56140
H         32.39864       -2.52457       23.59892
H         30.95003       -2.78565       22.58629
C         30.94843       -0.94394       23.74832
H         31.37213       -0.30178       22.95696
C         24.84548       -0.71930       24.43132
H         25.63046       -1.27223       24.95993
H         30.86354       -3.03235       24.35883
H         31.28578       -0.54663       24.72136
O         26.67671        2.32749       23.62671
N         27.55295        0.17661       23.79316
C         26.50924        1.11742       23.72998
C         25.13507        0.49893       23.77996
C         24.08785        1.21480       23.16798
H         24.32149        2.16027       22.66903
S         29.72609        1.80657       24.10203
C         28.92985        0.38550       23.85476
