123

C          3.42397        0.01152       -0.07786
C         -2.98348        0.00673       -0.10139
O         -5.59709       -3.01131       -0.16029
O         -6.04657        0.18488       -3.05643
O         -5.37466       -2.43169       -2.79841
O         -2.83871       -2.52413       -3.69575
O         -3.86286        1.74022       -3.23944
O         -1.87096       -0.01509       -3.75766
O         -3.66767        3.69893       -1.36028
O         -7.35467        0.94069       -0.82088
O         -6.96207       -1.02159        1.01123
O         -5.94952        3.13375       -0.00212
O         -5.49278       -0.00879        3.03784
O         -5.23028        2.63559        2.51985
O          6.19861        2.00043       -1.85468
O          2.40637        0.78234       -3.24584
O          6.18017       -0.66804       -2.28267
O          3.91615       -1.43696       -3.52217
O          0.68604       -2.03111        1.67839
O         -3.16029       -3.92561        0.60274
O          4.44835       -3.76596        0.07107
O          0.52564       -2.23557       -1.00562
O         -1.62244       -3.75438       -1.62972
O          2.77281       -3.40028       -2.05175
O          0.08802        0.28436       -1.93265
O          6.63206       -2.21061       -0.11195
O          3.21188       -1.13419       -0.17681
O         -3.08643       -0.92151       -0.80791
O          3.74367        2.99593       -2.43811
O          2.49222        3.83775       -0.19433
O          6.40269        2.26488        0.83447
O          4.16218        3.39400        1.90288
O          6.82725       -0.25190        1.76721
O         -1.70113        3.97222        0.47759
O          3.14026       -3.01014        2.30662
O         -1.68065       -2.92691        2.64291
O          4.54541       -0.81708        3.12538
O          0.71861        0.64283        2.16712
O         -3.01676       -0.87476        3.79197
O          3.01726        1.39699        3.35788
O         -1.33799        1.23412        3.80581
O          0.29960        2.20354       -0.01594
O         -2.65861        3.46920        2.94684
O          3.63791        1.15661        0.02586
O         -2.88399        0.93294        0.60856
H         -1.53727        0.20872       -4.67487
H         -2.59466        0.64418       -3.56437
H         -6.56859        0.42548       -2.23873
H         -7.85028       -1.37487        1.30012
H         -6.46037       -1.77841        0.59199
H         -5.97518       -2.90792       -3.43923
H         -4.69941       -3.28777        0.17843
H         -5.47612       -2.80137       -1.12855
H         -5.80096       -0.77616       -2.95014
H         -4.68881        1.19056       -3.09477
H         -4.44786       -2.48207       -3.16950
H         -3.76984        2.39544       -2.49754
H         -2.47692       -1.59398       -3.78938
H         -3.81567        4.62362       -1.70726
H         -2.93330        3.77957       -0.68528
H         -7.24608        0.23858       -0.11993
H         -6.83239        1.73028       -0.50734
H         -6.03748       -0.41750        2.30598
H         -5.65891        2.94211        0.93977
H         -5.10176        3.32560       -0.49539
H         -6.05334       -0.06826        3.86037
H         -5.26851        1.65371        2.70495
H         -4.28580        2.91930        2.68359
H          5.33085        2.40109       -2.14510
H          6.13216        1.01694       -2.01591
H          2.86882        1.60316       -2.91049
H          3.31166       -0.65133       -3.40247
H          1.55845        0.65560       -2.73387
H          5.34244       -1.00404       -2.71434
H          6.34102       -1.25219       -1.48601
H          3.48678       -2.20483       -3.04803
H          1.54413       -2.44306        1.98068
H          0.66912       -2.13593        0.68334
H          3.92633       -3.52535        0.88877
H         -2.62263       -3.53783        1.34897
H          2.53511       -4.30780       -2.38965
H         -3.26625       -4.89739        0.81674
H         -2.22718       -3.79743       -0.83334
H          4.69396       -4.72699        0.17736
H          3.39231       -3.55168       -1.28177
H          5.80612       -2.76028        0.03273
H         -0.25330       -2.80924       -1.25328
H          1.33757       -2.66224       -1.40177
H          0.23625       -0.64333       -1.59245
H         -2.10664       -3.28512       -2.36738
H          6.72509       -1.55540        0.62996
H         -2.77779       -2.99470       -4.57287
H         -0.63940        0.20201       -2.61813
H          6.27930        2.19957       -0.15558
H          3.63434        3.72424       -3.11113
H          3.31074        3.33168       -1.60196
H          4.40470        4.29819        2.24971
H          3.51959        3.56173        1.15677
H          2.18401        4.78291       -0.28722
H          1.67959        3.26465       -0.14137
H          5.55945        2.65289        1.20742
H          6.67926        0.67279        1.42024
H          7.56163       -0.17126        2.44222
H         -0.95638        3.33637        0.28730
H         -1.31825        4.89180        0.46223
H         -0.79420       -2.59509        2.32542
H          0.75435       -0.34203        2.00057
H          3.24885       -3.71226        3.00757
H          3.66254       -2.22056        2.62016
H         -2.16161       -2.15218        3.04962
H         -0.99593        1.30291        4.73818
H          3.65152        0.62822        3.26882
H          4.83602       -1.00873        4.06727
H          5.39317       -0.62524        2.63211
H          1.58791        0.91079        2.58389
H         -0.55203        1.02535        3.22487
H          0.43994        1.64400        0.79842
H         -3.91357       -0.60930        3.44811
H         -2.44336       -0.05574        3.75672
H          3.44066        2.17134        2.89159
H         -2.16040        2.66192        3.25472
H          0.14940        1.54261       -0.74544
H         -2.28411        3.68203        2.04382
