36
b03.log
C          6.46494        3.37948        3.62286
C          3.29573        3.33962       -0.48331
C          1.11941        5.88426        3.59007
C          5.67114        4.36032        4.21068
C          4.60244        5.02598        0.63714
C          1.41840        4.99650        2.56192
C          0.79737        3.75402        2.51954
C          4.23953        3.69266        0.47468
C          6.02172        5.70199        4.08781
H          6.19750        2.32753        3.72836
H          3.01501        2.29413       -0.61586
H          1.60819        6.85862        3.62483
H          4.77479        4.07867        4.76342
H          5.31688        5.30660        1.41052
H          2.14792        5.27403        1.80181
H          1.03608        3.05575        1.71840
H          4.68784        2.93358        1.11150
H          5.39993        6.47051        4.54859
C         -0.12294        3.40162        3.50034
C         -0.42255        4.29090        4.52710
C          0.20009        5.53306        4.57254
H         -0.61101        2.42693        3.46569
H         -1.14421        4.01321        5.29596
H         -0.03406        6.23155        5.37704
C          4.01759        6.00135       -0.16551
C          2.70708        4.31957       -1.27537
C          3.06814        5.65104       -1.11584
H          4.28623        7.05120       -0.04463
H          1.96396        4.04301       -2.02372
H          2.60569        6.41835       -1.73681
C          7.16586        6.05370        3.37386
C          7.95155        5.07698        2.78052
C          7.60356        3.73761        2.90604
H          7.42936        7.10791        3.28269
H          8.84470        5.35920        2.22220
H          8.22690        2.96843        2.44754
