72
b06.log
C         -3.36218       -0.47452       -0.24185
C         -1.41943        3.15348        0.45770
C         -1.26266       -0.88948        3.33668
C          1.26266        0.88947       -3.33668
C          1.41943       -3.15347       -0.45770
C          3.36218        0.47452        0.24185
C         -4.21710       -1.20109        0.57835
C         -0.49358        2.70453       -0.47703
C         -0.37385       -0.74338       -2.66238
C          0.37385        0.74338        2.66239
C          0.49358       -2.70453        0.47703
C          4.21710        1.20109       -0.57834
C         -3.81664        0.68505       -0.85869
C         -0.82020       -3.15455        0.41961
C         -0.92389        0.24848        2.61461
C          0.92389       -0.24848       -2.61460
C          0.82020        3.15455       -0.41961
C          3.81664       -0.68506        0.85869
H         -2.33842       -0.81143       -0.39880
H         -2.45120        2.80679        0.41368
H         -2.28242       -1.27225        3.29617
H          2.28242        1.27224       -3.29616
H          2.45120       -2.80678       -0.41368
H          2.33842        0.81143        0.39880
H         -3.86814       -2.11494        1.05867
H         -0.78423        2.00547       -1.26035
H         -0.63017       -1.63863       -2.09735
H          0.63017        1.63863        2.09736
H          0.78423       -2.00547        1.26035
H          3.86815        2.11494       -1.05867
H         -3.14864        1.25312       -1.50511
H         -1.53788       -2.80301        1.15869
H         -1.67306        0.75713        2.01108
H          1.67305       -0.75714       -2.01108
H          1.53788        2.80301       -1.15870
H          3.14864       -1.25312        1.50511
C         -1.21564       -4.03678       -0.57956
C         -0.29048       -4.47869       -1.51872
C          1.02717       -4.03939       -1.45495
H         -2.24936       -4.37884       -0.62950
H         -0.59735       -5.16681       -2.30615
H          1.75269       -4.38956       -2.18891
C         -5.97219        0.39623        0.17437
C         -5.11965        1.12176       -0.64970
C         -5.52105       -0.76702        0.78719
H         -6.99457        0.73716        0.33797
H         -5.47297        2.03315       -1.13224
H         -6.19078       -1.33841        1.42994
C          1.33554        0.09533        3.42931
C         -0.30112       -1.54038        4.10149
C          0.99866       -1.04771        4.14674
H          2.35570        0.47740        3.45991
H         -0.56234       -2.43661        4.66398
H          1.75395       -1.56096        4.74208
C         -1.33554       -0.09533       -3.42930
C          0.30112        1.54038       -4.10149
C         -0.99866        1.04771       -4.14674
H         -2.35571       -0.47739       -3.45990
H          0.56234        2.43661       -4.66398
H         -1.75395        1.56096       -4.74208
C          5.97219       -0.39624       -0.17438
C          5.11965       -1.12177        0.64970
C          5.52105        0.76701       -0.78719
H          6.99457       -0.73716       -0.33798
H          5.47297       -2.03316        1.13224
H          6.19077        1.33840       -1.42994
C          1.21564        4.03678        0.57955
C          0.29049        4.47870        1.51871
C         -1.02717        4.03940        1.45495
H          2.24936        4.37884        0.62950
H          0.59736        5.16681        2.30614
H         -1.75268        4.38957        2.18891
