36
65840497.4785
H 0.630663739749 -2.36334756434 3.51293514687
H 1.70769373975 -0.671347564339 2.00100514687
C 0.258193739749 -1.33539756434 3.46256514687
H -1.29903626025 -1.69904756434 4.90729514687
C 0.847173739749 -0.405287564339 2.61108514687
H 0.798023739749 1.60665243566 1.88362514687
C -0.838716260251 -0.987557564339 4.24411514687
H -2.20870626025 0.578952435661 4.78990514687
C 0.337713739749 0.895162435661 2.54680514687
C -1.34818626025 0.312892435661 4.17983514687
C -0.759206260251 1.24300243566 3.32834514687
H -1.13166626025 2.27095243566 3.27797514687
H -7.44998626025 6.64041243566 6.45385514687
H -6.21146626025 5.09422243566 4.90977514687
C -7.71839626025 5.58170243566 6.38276514687
H -9.30264626025 5.75994243566 7.83286514687
C -7.04064626025 4.73185243566 5.51361514687
H -6.89010626025 2.73980243566 4.74641514687
C -8.77448626025 5.11105243566 7.15618514687
H -9.98128626025 3.40552243566 7.66949514687
C -7.41826626025 3.38869243566 5.42308514687
C -9.15210626025 3.76790243566 7.06566514687
C -8.47436626025 2.91804243566 6.19651514687
H -8.74276626025 1.85934243566 6.12542514687
H -0.0892162602506 7.00206243566 7.00182514687
H 1.14931373975 5.45588243566 5.45774514687
C -0.357616260251 5.94335243566 6.93073514687
H -1.94186626025 6.12160243566 8.38083514687
C 0.320133739749 5.09350243566 6.06158514687
H 0.470673739749 3.10145243566 5.29438514687
C -1.41370626025 5.47270243566 7.70415514687
H -2.62051626025 3.76717243566 8.21747514687
C -0.0574862602506 3.75034243566 5.97106514687
C -1.79133626025 4.12955243566 7.61363514687
C -1.11358626025 3.27970243566 6.74448514687
H -1.38198626025 2.22099243566 6.67339514687
