 36
# 65840497.4785
 H       -2.850510593    -2.312718712    +2.194883836
 H       -1.872872227    -0.013085631    +1.974337642
 C       -3.031181223    -1.706164141    +1.297716722
 H       -4.248424349    -3.221439158    +0.370975069
 C       -2.477099689    -0.440019217    +1.174624165
 H       -2.254872759    +1.280687231    -0.078015206
 C       -3.811146992    -2.242028955    +0.280043939
 H       -4.640715069    -1.932154124    -1.681265738
 C       -2.696896414    +0.308167380    +0.011187514
 C       -4.034179538    -1.498809223    -0.882249846
 C       -3.471689407    -0.232382897    -1.012773383
 H       -3.654395780    +0.373602328    -1.902488864
 H       -7.426464039    -0.571291873    -9.248934027
 H       -5.620375782    -0.709189003    -7.502986776
 C       -7.074599835    -1.539942694    -8.873436297
 H       -8.429998228    -2.654666838   -10.138135782
 C       -6.073397015    -1.618394896    -7.923132367
 H       -4.852062217    -2.914514478    -6.740608964
 C       -7.653322451    -2.700403900    -9.396474157
 H       -7.658026644    -4.851979212    -9.362345791
 C       -5.631032478    -2.865819787    -7.471788338
 C       -7.214948132    -3.950452636    -8.947124293
 C       -6.198516209    -4.022934271    -7.992509401
 H       -5.853203761    -4.994249207    -7.623183098
 H       -8.484822068    +3.807937454    -3.398777680
 H       -6.680221861    +3.671353480    -1.651022429
 C       -8.136080828    +2.838074804    -3.019966151
 H       -9.485388849    +1.732083023    -4.282347402
 C       -7.123732029    +2.769383990    -2.060523437
 H       -5.903169927    +1.471425591    -0.875043594
 C       -8.705956143    +1.682255268    -3.540235951
 H       -8.716249037    -0.466936982    -3.510003103
 C       -6.689446160    +1.515466573    -1.616800845
 C       -8.272091855    +0.430909524    -3.098473332
 C       -7.254073721    +0.357677804    -2.133238955
 H       -6.910609227    -0.612699182    -1.760098884
