12

C          1.40211        2.22973       13.22840
C          0.00538        2.22976       13.22796
C          2.10041        1.02008       13.22939
H          1.94721        3.17382       13.22798
H         -0.53986       -1.13355       13.22991
C         -0.69306        1.02019       13.22851
H         -0.53972        3.17385       13.22837
H         -1.78320        1.02027       13.22821
C          0.00524       -0.18945       13.22950
C          1.40196       -0.18949       13.22996
H          1.94706       -1.13358       13.23037
H          3.19055        1.02001       13.22968
