16

N          2.06034        1.53198       21.14143
C          2.85043        0.48301       21.13787
C          0.78308        1.00468       21.16455
H          3.93458        0.50558       21.12281
H         -2.34891       -2.45382       21.13215
H         -3.37043       -1.10771       20.88815
N         -0.20425       -1.28298       21.18728
C         -1.38192       -0.69461       21.21605
N         -2.51795       -1.46759       21.30212
C         -0.49630        1.65983       21.18828
N         -1.54338        0.66659       21.21527
O         -0.79834        2.84483       21.19595
H         -2.47417        1.07082       21.29145
N          2.15344       -0.71320       21.15773
H          2.53446       -1.65212       21.15668
C          0.81932       -0.39529       21.17566
