11

C          0.00000        0.00000       19.78195
C          0.00000        1.19800       20.49473
H          0.00000        0.00000       18.69239
H          0.00000        2.15962       19.98364
C          0.00000       -1.19800       20.49473
H          0.00000       -2.15962       19.98364
C          0.00000       -1.14399       21.88977
H          0.00000       -2.06515       22.47693
N          0.00000        0.00000       22.59031
C          0.00000        1.14399       21.88977
H          0.00000        2.06515       22.47693
