          13

 H    4.3109827176703348        2.0235224212943690        9.4381542328384125     
 C    3.8621404832113120        3.0117060355773835        9.5826371794668077     
 C    4.6760333924718678        4.1301537107294219        9.7227104924160237     
 H    5.7646076383382567        4.0216252332791873        9.6884578571406887     
 C    4.1090316553662731        5.3885607669776663        9.9065657579774182     
 H    4.7545138650753431        6.2662832428092345        10.016420141841499     
 C    2.7299744710215070        5.5412629998453236        9.9520228739611145     
 H    2.2816797762202121        6.5304903632545610        10.096569110183655     
 C    1.9168306650174287        4.4078788217213445        9.8099090007778553     
 C    2.4785901081061277        3.1378434667383810        9.6246068059750112     
 H    1.8436080442407832        2.2516735234552079        9.5135548940878945     
 S   0.56669978859037462        4.6250244138042538        9.8637583381125769     
 H   0.13270531408541153        3.7879047526688221        9.7559113879892863     
