8

C          1.53002        0.94817        0.00000
H          2.46589        1.52814        0.00000
H          0.59416        1.52814        0.00000
O          1.53002       -0.25603        0.00000
C         -1.53002       -0.94817        0.00000
H         -2.46589       -1.52814        0.00000
H         -0.59416       -1.52814        0.00000
O         -1.53002        0.25603        0.00000
