         181
 
 Fe   1.04947500000000        1.04947500000000        1.04947500000000     
 Fe   1.04947500000000        5.24737500000000        5.24737500000000     
 Fe   5.24737500000000        1.04947500000000        5.24737500000000     
 Fe   5.24737500000000        5.24737500000000        1.04947500000000     
 Fe   4.19790000000000        4.19790000000000        4.19790000000000     
 Fe   4.19790000000000       0.000000000000000E+000  0.000000000000000E+000
 Fe  2.570472399070337E-016   4.19790000000000       0.000000000000000E+000
 Fe  2.570472399070337E-016  2.570472399070337E-016   4.19790000000000     
 Fe  5.140944798140674E-016   2.09895000000000        6.29685000000000     
 Fe  5.140944798140674E-016   6.29685000000000        2.09895000000000     
 Fe   4.19790000000000        2.09895000000000        2.09895000000000     
 Fe   4.19790000000000        6.29685000000000        6.29685000000000     
 Fe   2.09895000000000        6.29685000000000       0.000000000000000E+000
 Fe   2.09895000000000        2.09895000000000        4.19790000000000     
 Fe   6.29685000000000        6.29685000000000        4.19790000000000     
 Fe   6.29685000000000        2.09895000000000       0.000000000000000E+000
 Fe   6.29685000000000       1.285236199535168E-016   2.09895000000000     
 Fe   6.29685000000000        4.19790000000000        6.29685000000000     
 Fe   2.09895000000000       3.855708598605506E-016   6.29685000000000     
 Fe   2.09895000000000        4.19790000000000        2.09895000000000     
 O    2.13841026000000        2.13841026000000        2.13841026000000     
 O    2.13841026000000        6.33631026000000        6.33631026000000     
 O    6.33631026000000        2.13841026000000        6.33631026000000     
 O    6.33631026000000        6.33631026000000        2.13841026000000     
 O    6.25738974000000        6.25738974000000        6.25738974000000     
 O    6.25738974000000        2.05948974000000        2.05948974000000     
 O    2.05948974000000        6.25738974000000        2.05948974000000     
 O    2.05948974000000        2.05948974000000        6.25738974000000     
 O    2.05948974000000       3.946025999999964E-002   4.23736026000000     
 O    2.05948974000000        4.23736026000000       3.946025999999938E-002
 O    6.25738974000000       3.946025999999938E-002  3.946025999999938E-002
 O    6.25738974000000        4.23736026000000        4.23736026000000     
 O   3.946025999999976E-002   4.23736026000000        2.05948974000000     
 O   3.946025999999976E-002  3.946025999999976E-002   6.25738974000000     
 O    4.23736026000000        4.23736026000000        6.25738974000000     
 O    4.23736026000000       3.946025999999950E-002   2.05948974000000     
 O    4.15843974000000        2.13841026000000        4.15843974000000     
 O    4.15843974000000        4.15843974000000        2.13841026000000     
 O    4.23736026000000        2.05948974000000       3.946025999999938E-002
 O    4.23736026000000        6.25738974000000        4.23736026000000     
 O   3.946025999999976E-002   2.05948974000000        4.23736026000000     
 O   3.946025999999976E-002   6.25738974000000       3.946025999999938E-002
 O    2.13841026000000        4.15843974000000        4.15843974000000     
 Fe  -1.04947500000000       -1.04947500000000       -1.04947500000000     
 Fe  -4.19790000000000       -4.19790000000000       -4.19790000000000     
 Fe  -4.19790000000000       -2.09895000000000       -2.09895000000000     
 Fe  -2.09895000000000       -2.09895000000000       -4.19790000000000     
 Fe  -2.09895000000000       -4.19790000000000       -2.09895000000000     
 O   -2.13841026000000       -2.13841026000000       -2.13841026000000     
 O   -2.13841026000000       -4.15843974000000       -4.15843974000000     
 O   -4.15843974000000       -4.15843974000000       -2.13841026000000     
 O  -3.946025999999976E-002  -2.05948974000000       -4.23736026000000     
 O   -4.23736026000000       -2.05948974000000      -3.946025999999938E-002
 O   -4.23736026000000      -3.946025999999950E-002  -2.05948974000000     
 O  -3.946025999999976E-002  -4.23736026000000       -2.05948974000000     
 O   -4.15843974000000       -2.13841026000000       -4.15843974000000     
 O   -2.05948974000000       -4.23736026000000      -3.946025999999938E-002
 O   -2.05948974000000      -3.946025999999964E-002  -4.23736026000000     
 Fe  -3.14842500000000       -3.14842500000000        1.04947500000000     
 Fe  -4.19790000000000       -4.19790000000000        4.19790000000000     
 Fe  -4.19790000000000       -2.09895000000000        6.29685000000000     
 Fe  -2.09895000000000       -2.09895000000000        4.19790000000000     
 Fe  -2.09895000000000       -4.19790000000000        6.29685000000000     
 O   -2.05948974000000       -2.05948974000000        2.13841026000000     
 O   -2.13841026000000       -2.13841026000000        6.25738974000000     
 O   -2.13841026000000       -4.15843974000000        4.23736026000000     
 O   -4.15843974000000       -4.15843974000000        6.25738974000000     
 O  -3.946025999999925E-002  -2.05948974000000        4.15843974000000     
 O   -4.23736026000000      -3.946025999999899E-002   6.33631026000000     
 O   -4.23736026000000       -4.23736026000000        2.13841026000000     
 O  -3.946025999999925E-002 -3.946025999999925E-002   2.13841026000000     
 O  -3.946025999999925E-002  -4.23736026000000        6.33631026000000     
 O   -4.15843974000000       -2.13841026000000        4.23736026000000     
 O   -2.05948974000000      -3.946025999999912E-002   4.15843974000000     
 Fe  -3.14842500000000        1.04947500000000       -3.14842500000000     
 Fe  -4.19790000000000        4.19790000000000       -4.19790000000000     
 Fe  -4.19790000000000        6.29685000000000       -2.09895000000000     
 Fe  -2.09895000000000        6.29685000000000       -4.19790000000000     
 Fe  -2.09895000000000        4.19790000000000       -2.09895000000000     
 O   -2.05948974000000        2.13841026000000       -2.05948974000000     
 O   -2.13841026000000        6.25738974000000       -2.13841026000000     
 O   -2.13841026000000        4.23736026000000       -4.15843974000000     
 O   -4.15843974000000        4.23736026000000       -2.13841026000000     
 O  -3.946025999999925E-002   6.33631026000000       -4.23736026000000     
 O  -3.946025999999925E-002   2.13841026000000      -3.946025999999938E-002
 O   -4.23736026000000        6.33631026000000      -3.946025999999938E-002
 O   -4.23736026000000        2.13841026000000       -4.23736026000000     
 O  -3.946025999999925E-002   4.15843974000000       -2.05948974000000     
 O   -4.15843974000000        6.25738974000000       -4.15843974000000     
 O   -2.05948974000000        4.15843974000000      -3.946025999999938E-002
 Fe  -3.14842500000000        1.04947500000000        5.24737500000000     
 Fe  -3.14842500000000        5.24737500000000        1.04947500000000     
 Fe  -1.04947500000000        3.14842500000000        3.14842500000000     
 Fe  -4.19790000000000        4.19790000000000        4.19790000000000     
 Fe  -4.19790000000000       0.000000000000000E+000  0.000000000000000E+000
 Fe  -4.19790000000000        2.09895000000000        2.09895000000000     
 Fe  -4.19790000000000        6.29685000000000        6.29685000000000     
 Fe  -2.09895000000000        6.29685000000000        4.19790000000000     
 Fe  -2.09895000000000        2.09895000000000       0.000000000000000E+000
 Fe  -2.09895000000000       1.285236199535168E-016   2.09895000000000     
 Fe  -2.09895000000000        4.19790000000000        6.29685000000000     
 O   -2.05948974000000        2.13841026000000        6.33631026000000     
 O   -2.05948974000000        6.33631026000000        2.13841026000000     
 O   -2.13841026000000        6.25738974000000        6.25738974000000     
 O   -2.13841026000000        2.05948974000000        2.05948974000000     
 O   -2.13841026000000       3.946025999999938E-002  3.946025999999938E-002
 O   -2.13841026000000        4.23736026000000        4.23736026000000     
 O   -4.15843974000000        4.23736026000000        6.25738974000000     
 O   -4.15843974000000       3.946025999999950E-002   2.05948974000000     
 O  -3.946025999999873E-002   6.33631026000000        4.15843974000000     
 O   -4.23736026000000        2.13841026000000        4.15843974000000     
 O   -4.23736026000000        4.15843974000000        2.13841026000000     
 O  -3.946025999999873E-002   4.15843974000000        6.33631026000000     
 O   -4.15843974000000        2.05948974000000       3.946025999999938E-002
 O   -4.15843974000000        6.25738974000000        4.23736026000000     
 Fe   1.04947500000000       -3.14842500000000       -3.14842500000000     
 Fe   4.19790000000000       -4.19790000000000       -4.19790000000000     
 Fe   4.19790000000000       -2.09895000000000       -2.09895000000000     
 Fe   6.29685000000000       -2.09895000000000       -4.19790000000000     
 Fe   6.29685000000000       -4.19790000000000       -2.09895000000000     
 O    2.13841026000000       -2.05948974000000       -2.05948974000000     
 O    6.25738974000000       -2.13841026000000       -2.13841026000000     
 O    6.25738974000000       -4.15843974000000       -4.15843974000000     
 O    4.23736026000000       -4.15843974000000       -2.13841026000000     
 O    4.15843974000000       -2.05948974000000      -3.946025999999938E-002
 O    4.15843974000000      -3.946025999999950E-002  -2.05948974000000     
 O    4.23736026000000       -2.13841026000000       -4.15843974000000     
 O    6.33631026000000       -4.23736026000000      -3.946025999999938E-002
 O    6.33631026000000      -3.946025999999964E-002  -4.23736026000000     
 O    2.13841026000000       -4.23736026000000       -4.23736026000000     
 O    2.13841026000000      -3.946025999999938E-002 -3.946025999999938E-002
 Fe   1.04947500000000       -3.14842500000000        5.24737500000000     
 Fe   5.24737500000000       -3.14842500000000        1.04947500000000     
 Fe   3.14842500000000       -1.04947500000000        3.14842500000000     
 Fe   4.19790000000000       -4.19790000000000        4.19790000000000     
 Fe -2.570472399070337E-016  -4.19790000000000       0.000000000000000E+000
 Fe  0.000000000000000E+000  -2.09895000000000        2.09895000000000     
 Fe   4.19790000000000       -2.09895000000000        6.29685000000000     
 Fe   2.09895000000000       -2.09895000000000       0.000000000000000E+000
 Fe   6.29685000000000       -2.09895000000000        4.19790000000000     
 Fe   6.29685000000000       -4.19790000000000        6.29685000000000     
 Fe   2.09895000000000       -4.19790000000000        2.09895000000000     
 O    2.13841026000000       -2.05948974000000        6.33631026000000     
 O    6.33631026000000       -2.05948974000000        2.13841026000000     
 O    6.25738974000000       -2.13841026000000        6.25738974000000     
 O    2.05948974000000       -2.13841026000000        2.05948974000000     
 O    2.05948974000000       -4.15843974000000       3.946025999999938E-002
 O    6.25738974000000       -4.15843974000000        4.23736026000000     
 O   3.946025999999925E-002  -4.15843974000000        2.05948974000000     
 O    4.23736026000000       -4.15843974000000        6.25738974000000     
 O    4.15843974000000      -3.946025999999899E-002   6.33631026000000     
 O    4.15843974000000       -4.23736026000000        2.13841026000000     
 O    4.23736026000000       -2.13841026000000        4.23736026000000     
 O   3.946025999999925E-002  -2.13841026000000       3.946025999999938E-002
 O    6.33631026000000      -3.946025999999912E-002   4.15843974000000     
 O    2.13841026000000       -4.23736026000000        4.15843974000000     
 Fe   1.04947500000000        5.24737500000000       -3.14842500000000     
 Fe   5.24737500000000        1.04947500000000       -3.14842500000000     
 Fe   3.14842500000000        3.14842500000000       -1.04947500000000     
 Fe   4.19790000000000        4.19790000000000       -4.19790000000000     
 Fe -2.570472399070337E-016 -2.570472399070337E-016  -4.19790000000000     
 Fe  0.000000000000000E+000   2.09895000000000       -2.09895000000000     
 Fe   4.19790000000000        6.29685000000000       -2.09895000000000     
 Fe   2.09895000000000        2.09895000000000       -4.19790000000000     
 Fe   6.29685000000000        6.29685000000000       -4.19790000000000     
 Fe   6.29685000000000        4.19790000000000       -2.09895000000000     
 Fe   2.09895000000000      -1.285236199535168E-016  -2.09895000000000     
 O    2.13841026000000        6.33631026000000       -2.05948974000000     
 O    6.33631026000000        2.13841026000000       -2.05948974000000     
 O    6.25738974000000        6.25738974000000       -2.13841026000000     
 O    2.05948974000000        2.05948974000000       -2.13841026000000     
 O    2.05948974000000       3.946025999999912E-002  -4.15843974000000     
 O    6.25738974000000        4.23736026000000       -4.15843974000000     
 O   3.946025999999925E-002  3.946025999999925E-002  -2.13841026000000     
 O    4.23736026000000        4.23736026000000       -2.13841026000000     
 O    4.15843974000000        6.33631026000000      -3.946025999999938E-002
 O    4.15843974000000        2.13841026000000       -4.23736026000000     
 O    4.23736026000000        6.25738974000000       -4.15843974000000     
 O   3.946025999999925E-002   2.05948974000000       -4.15843974000000     
 O    6.33631026000000        4.15843974000000      -3.946025999999938E-002
 O    2.13841026000000        4.15843974000000       -4.23736026000000     
