24

Au         0.00000        0.00000        0.00000
Cl         0.00000        0.00000        2.65115
Au         2.65115        0.00000        2.65115
Cl         2.65115        0.00000        0.00000
Au         2.65115        2.65115        0.00000
Cl         2.65115        2.65115        2.65115
Au         0.00000        2.65115        2.65115
Cl         0.00000        2.65115        0.00000
P         -1.29784       -1.29784       -1.29784
H         -1.19269       -2.70678       -1.19231
H         -2.70678       -1.19231       -1.19269
H         -1.19231       -1.19269       -2.70678
P          3.94899       -1.29784        3.94899
H          3.84323       -2.70678        3.84407
H          5.35794       -1.19292        3.84323
H          3.84407       -1.19208        5.35794
P          3.94899        3.94899       -1.29784
H          3.84369        5.35794       -1.19246
H          5.35794        3.84361       -1.19254
H          3.84361        3.84369       -2.70678
P         -1.29784        3.94899        3.94899
H         -1.19237        5.35794        3.84378
H         -2.70678        3.84378        3.84353
H         -1.19263        3.84353        5.35794
