          24
 
 C    3.14038203564343        4.86299990251345        4.89999997293806     
 C    3.14038203564343        2.07999981140011       0.999999929679946     
 C    3.14038203564343        4.86299990251345       0.999999929679946     
 C    3.14038203564343        2.07999981140011        4.89999997293806     
 H    3.14038203564343        5.94299978423361        4.89999997293806     
 H    3.14038203564343       0.999999929679945       0.999999929679946     
 H    3.14038203564343        5.94299978423361       0.999999929679946     
 H    3.14038203564343       0.999999929679947        4.89999997293806     
 C    1.93530794560977        4.16724987973511        4.89999997293806     
 C    4.34545612567709        2.77574983417844       0.999999929679946     
 C    1.93530794560977        4.16724987973511       0.999999929679946     
 C    1.93530794560977        2.77574983417845        4.89999997293806     
 C    1.93530794560977        2.77574983417844       0.999999929679946     
 C    4.34545612567709        4.16724987973511        4.89999997293806     
 C    4.34545612567709        4.16724987973511       0.999999929679946     
 C    4.34545612567709        2.77574983417845        4.89999997293806     
 H    1.00000045885716        4.70724982059520        4.89999997293806     
 H    5.28076361242970        2.23574989331836       0.999999929679946     
 H    1.00000045885716        4.70724982059520       0.999999929679946     
 H    1.00000045885716        2.23574989331836        4.89999997293806     
 H    1.00000045885715        2.23574989331836       0.999999929679946     
 H    5.28076361242970        4.70724982059520        4.89999997293806     
 H    5.28076361242970        4.70724982059520       0.999999929679946     
 H    5.28076361242970        2.23574989331836        4.89999997293806     
