18

O         -1.02998       -2.20721       -0.54254
H         -1.31088       -2.74797        0.20046
H         -0.05538       -2.12895       -0.44713
O          1.64974       -1.89521       -0.24900
H          2.02041       -0.98964       -0.34089
H          2.31846       -2.48442       -0.60613
O          2.64158        0.62728       -0.43486
H          2.18459        1.27628        0.14681
H          2.73764        1.07590       -1.27881
O         -2.26634        0.19981       -0.73306
H         -2.31978        0.38636       -1.67383
H         -1.82679       -0.67856       -0.67184
O          1.35119        2.40917        1.15331
H          1.58437        2.37594        2.08492
H          0.37490        2.30198        1.13069
O         -1.33319        2.02107        1.05465
H         -1.68098        1.38351        0.39254
H         -1.99351        2.71560        1.11410
