18

O          2.34043        1.24353       -0.38082
H          3.24608        1.44871       -0.13387
H          2.33298        0.27246       -0.56040
O          2.08655       -1.41763       -0.64012
H          1.89631       -1.84597       -1.47893
H          1.27542       -1.54500       -0.08994
O         -0.09127       -1.43057        0.95029
H         -0.06707       -0.51125        1.25634
H         -0.93236       -1.48578        0.45631
O         -2.40755       -1.22120       -0.59412
H         -3.28367       -1.45717       -0.27785
H         -2.40260       -0.24330       -0.63460
O         -2.06775        1.51573       -0.49522
H         -1.87712        2.02414       -1.28826
H         -1.27434        1.61227        0.06700
O          0.16069        1.47445        1.16462
H          0.27012        2.06043        1.91863
H          1.01690        1.49377        0.67221
