18

O          0.86349       -1.71437       -0.47414
H          1.68451       -1.20096       -0.30604
H          1.14832       -2.58673       -0.75997
O         -0.72991        0.40967       -1.63512
H         -0.26198       -0.43071       -1.50637
H         -1.60873        0.24864       -1.24151
O          0.59006        1.73998        0.25439
H          0.06844        1.37694       -0.51087
H          0.49699        2.69581        0.21149
O         -0.70163       -0.49627        1.65724
H         -0.19854       -1.09756        1.08490
H         -0.28358        0.36222        1.48901
O          2.79481        0.11311        0.07721
H          2.14781        0.84060        0.18220
H          3.29442        0.09670        0.89827
O         -2.89007        0.01266        0.06333
H         -2.25381       -0.25280        0.76010
H         -3.64532       -0.57337        0.15471
