18

O         -0.00054        2.69487        0.14158
H         -0.12807        3.22645        0.93151
H         -0.84179        2.19784        0.02998
O         -2.33143       -1.34748        0.14389
H         -1.48069       -1.82768        0.03035
H         -2.72553       -1.72253        0.93564
O          2.33088        1.34642       -0.14217
H          2.72556        1.71801       -0.93526
H          1.48195        1.82980       -0.02858
O          0.00049       -2.69249       -0.14493
H          0.84415       -2.19942       -0.03332
H          0.12306       -3.22239       -0.93680
O          2.33184       -1.34637        0.14432
H          2.85142       -1.50430        0.93675
H          2.32476       -0.36914        0.03338
O         -2.33112        1.34523       -0.14259
H         -2.85076        1.50248       -0.93509
H         -2.32600        0.36820       -0.03004
