18

O         -2.30397       -2.02062        2.21371
H         -2.35963       -2.09788        1.22266
H         -3.11077       -2.41069        2.56102
O         -2.16755       -2.05440       -0.43377
H         -1.35315       -2.53893       -0.63529
H         -1.87155       -1.13085       -0.57120
O         -0.67170        0.29445       -0.47314
H          0.06130       -0.33013       -0.58239
H         -0.66627        0.49777        0.47578
O          0.73380       -2.27126       -0.41786
H          1.52240       -2.71120       -0.74696
H          0.79127       -2.31786        0.56239
O          0.54776       -2.20817        2.30955
H          0.54873       -1.26968        2.54360
H         -0.38483       -2.44502        2.44072
O         -0.88899        0.34430        2.42532
H         -1.18685        1.07305        2.97700
H         -1.57928       -0.34391        2.49084
